7
baker set rxn 22 product.
O        0.1636714715     0.0000000000     0.0910182635
C        0.2339988112     0.0000000000     1.3088916594
N        1.4086447775     0.0000000000     1.9845988179
O        1.3781773431     0.0000000000     3.3974414372
H       -0.6298041478     0.0000000000     1.9978884786
H        2.3067892160     0.0000000000     3.6661107511
H        2.3016575179     0.0000000000     1.5107885395
