7
baker set rxn 22 reactant.
O        0.0358482964     0.0000000000     0.0566671764
C        0.2443853405     0.0000000000     1.3891659838
N        1.4243835030     0.0000000000     1.8695519594
O        1.3831716989     0.0000000000     3.2851435375
H       -0.6715973390     0.0000000000     1.9759933942
H        2.3225599866     0.0000000000     3.5106639364
H        0.9079458029     0.0000000000    -0.3716764639
