7
XYZ coordinates of replica 0.
P       0.00000000      0.00820482      0.03022227      
O       0.00000000      0.24626858      1.52295327      
O       1.30726545      -0.11658024     -0.69491426     
O       -1.30726545     -0.11658024     -0.69491426     
O       0.00000000      2.03228232      3.61882116      
H       0.00000000      1.56404030      2.75447310      
H       0.00000000      1.28097577      4.22418307      
7
XYZ coordinates of replica 1.
P       -0.00000000     0.02443455      0.17361065      
O       -0.00000000     -0.17986529     1.67552770      
O       1.30952015      0.11880613      -0.55282069     
O       -1.30952015     0.11880613      -0.55282069     
O       -0.00000000     2.01632803      3.29610610      
H       -0.00000000     1.30260397      2.61540347      
H       -0.00000000     1.49602850      4.10801708      
7
XYZ coordinates of replica 2.
P       0.00000000      0.04792779      0.32584872      
O       0.00000000      -0.51347278     1.73676116      
O       1.31109566      0.31842695      -0.35029487     
O       -1.31109566     0.31842695      -0.35029487     
O       0.00000000      1.93667784      2.94463772      
H       0.00000000      1.02637915      2.56306155      
H       -0.00000000     1.76578247      3.89228540      
7
XYZ coordinates of replica 3.
P       -0.00000000     0.09889915      0.49630127      
O       -0.00000000     -0.71093094     1.78673633      
O       1.31469580      0.47963233      -0.11326326     
O       -1.31469580     0.47963233      -0.11326326     
O       0.00000000      1.77231506      2.59875930      
H       0.00000000      0.77976542      2.57481168      
H       -0.00000000     1.99703234      3.53153477      
7
XYZ coordinates of replica 4.
P       0.00000000      0.37026936      0.70018951      
O       0.00000000      -0.63484288     1.94237226      
O       1.32041569      0.59014205      0.04244678      
O       -1.32041569     0.59014205      0.04244678      
O       0.00000000      1.65960426      2.30609560      
H       0.00000000      0.32931796      2.52433238      
H       -0.00000000     1.99557205      3.20486371      
7
XYZ coordinates of replica 5.
P       -0.00000000     0.56700940      0.81136159      
O       0.00000000      -0.60580277     1.99932538      
O       1.31306588      0.61170489      0.09139040      
O       -1.31306588     0.61170489      0.09139040      
O       0.00000000      1.85143411      2.07087265      
H       0.00000000      0.10608620      2.65882103      
H       -0.00000000     1.75567739      3.04049323      
7
XYZ coordinates of replica 6.
P       -0.00000000     0.66079567      0.85012967      
O       0.00000000      -0.57082700     2.02403720      
O       1.32024728      0.62104644      0.14264437      
O       -1.32024728     0.62104644      0.14264437      
O       0.00000000      2.01646657      1.87814957      
H       0.00000000      -0.21333387     2.91692373      
H       0.00000000      1.76341705      2.80629544      
