7
baker set rxn 20 reactant.
N        0.0427369715     0.0000000000     0.0555624588
C       -0.0599045238     0.0000000000     1.6342807250
O        0.9392806794     0.0000000000     2.2501495927
H        1.0397773081     0.0000000000    -0.2002392635
H       -1.1072942495     0.0000000000     1.9602503699
H       -0.4056474578    -0.8318050080    -0.3532335389
H       -0.4056474578     0.8318050080    -0.3532335390
