7
XYZ coordinates of replica 0.
N       0.04273697      0.00000000      0.05556246      
C       -0.05990452     0.00000000      1.63428072      
O       0.93928068      0.00000000      2.25014959      
H       1.03977731      0.00000000      -0.20023926     
H       -1.10729425     0.00000000      1.96025037      
H       -0.40564746     -0.83180501     -0.35323354     
H       -0.40564746     0.83180501      -0.35323354     
7
XYZ coordinates of replica 1.
N       0.01849675      -0.00000000     -0.05351016     
C       0.00063890      -0.00000000     1.94306586      
O       0.95030239      -0.00000000     2.56986868      
H       0.98737751      0.00000000      -0.36855680     
H       -1.02409668     0.00000000      1.80186726      
H       -0.44495919     -0.82743491     -0.44971938     
H       -0.44495919     0.82743491      -0.44971938     
7
XYZ coordinates of replica 2.
N       -0.01760053     -0.00000000     -0.16048401     
C       0.00897268      -0.00000000     2.26083542      
O       0.95622375      -0.00000000     2.86710354      
H       0.93672513      0.00000000      -0.52140741     
H       -0.87538474     0.00000000      1.63590502      
H       -0.48327831     -0.82376492     -0.54443813     
H       -0.48327831     0.82376492      -0.54443813     
7
XYZ coordinates of replica 3.
N       -0.08989787     0.00000000      -0.17516194     
C       0.04399471      -0.00000000     2.37856318      
O       0.90903377      -0.00000000     3.07634738      
H       0.88120415      0.00000000      -0.50729583     
H       -0.61704387     0.00000000      1.34475371      
H       -0.54222108     -0.82884317     -0.56194240     
H       -0.54222108     0.82884317      -0.56194240     
7
XYZ coordinates of replica 4.
N       -0.15825345     0.00000000      -0.18812593     
C       0.08845706      -0.00000000     2.49376802      
O       0.85723035      -0.00000000     3.29034603      
H       0.82589263      0.00000000      -0.49609786     
H       -0.36621448     0.00000000      1.05055965      
H       -0.60189286     -0.83425562     -0.57842480     
H       -0.60189286     0.83425562      -0.57842480     
7
XYZ coordinates of replica 5.
N       -0.18778683     0.00000000      -0.23855240     
C       0.21073382      -0.00000000     2.58149415      
O       0.74833291      0.00000000      3.57390434      
H       0.78074395      0.00000000      -0.57344342     
H       -0.17525003     0.00000000      0.81021889      
H       -0.66638355     -0.83882857     -0.57984096     
H       -0.66638355     0.83882857      -0.57984096     
7
XYZ coordinates of replica 6.
N       -0.17605254     0.00000000      -0.30257402     
C       0.35835155      -0.00000000     2.69409689      
O       0.56172596      -0.00000000     3.80497097      
H       0.71627000      0.00000000      -0.80835408     
H       0.00382288      -0.00000000     0.73170212      
H       -0.71040829     -0.83597869     -0.56315254     
H       -0.71040829     0.83597869      -0.56315254     
