5
baker set rxn 19 product.
H       -2.6167289656     0.0000000000     1.0233927016
N       -1.6513365173     0.0000000000     1.2778008945
C       -0.5142492899     0.0000000000     1.5808228973
C        8.2050340260     0.0000000000     2.1214713178
S        9.3540215463     0.0000000000     3.1597848679
