8
XYZ coordinates of replica 0.
C       -0.02570852     0.00000000      0.01419018      
C       -0.03523628     0.00000000      1.35263651      
C       1.25719742      0.00000000      2.09101172      
O       2.33900581      0.00000000      1.53134703      
H       -0.93385166     0.00000000      -0.57862376     
H       0.92394229      0.00000000      -0.51525174     
H       -0.96674022     0.00000000      1.91729397      
H       1.20860774      0.00000000      3.20220614      
8
XYZ coordinates of replica 1.
C       -0.03278452     -0.04539707     0.01055657      
C       -0.02036034     0.07415526      1.34207517      
C       1.26490672      0.01796363      2.09099543      
O       2.33185377      0.37976247      1.63262817      
H       -0.95143547     -0.01498242     -0.56806844     
H       0.90277865      -0.19363304     -0.52171643     
H       -0.94292267     0.18758079      1.91044453      
H       1.21504017      -0.40512885     3.11801530      
8
XYZ coordinates of replica 2.
C       -0.04005160     -0.08994923     0.01664355      
C       -0.01114076     0.12531307      1.33258093      
C       1.27120495      0.02784578      2.09506232      
O       2.24550070      0.70994332      1.85817418      
H       -0.95981385     -0.02611936     -0.55729982     
H       0.87025661      -0.35904773     -0.51246042     
H       -0.91996107     0.35943967      1.88804144      
H       1.31120587      -0.74755188     2.89372727      
8
XYZ coordinates of replica 3.
C       -0.05980250     -0.15340620     0.02817990      
C       -0.00066986     0.17025569      1.31876148      
C       1.28487103      0.03909376      2.09423583      
O       2.10512636      0.91374923      2.17991456      
H       -0.97052296     -0.04153230     -0.55308613     
H       0.81975213      -0.53612027     -0.48368343     
H       -0.87368083     0.55638983      1.84638393      
H       1.46193949      -0.94860354     2.58437428      
8
XYZ coordinates of replica 4.
C       -0.07943069     -0.21719639     0.05079387      
C       0.01386737      0.20814029      1.31138945      
C       1.28706729      0.04832294      2.08321826      
O       1.91923334      0.98034519      2.52939420      
H       -0.97296571     -0.05550266     -0.54509290     
H       0.76258314      -0.70732251     -0.43382033     
H       -0.80386851     0.74232659      1.79310967      
H       1.64096072      -0.99886009     2.22609948      
8
XYZ coordinates of replica 5.
C       -0.09650108     -0.25847450     0.06909983      
C       0.03736366      0.25691221      1.29539135      
C       1.28765207      0.06564931      2.07266841      
O       1.71532306      0.86838415      2.87779333      
H       -0.98140487     -0.08664379     -0.53744488     
H       0.70498175      -0.84321870     -0.37805247     
H       -0.73330194     0.88281488      1.74093800      
H       1.83305950      -0.88561474     1.87400709      
8
XYZ coordinates of replica 6.
C       -0.11071422     -0.29262449     0.08920538      
C       0.07577599      0.32543458      1.26120702      
C       1.29027141      0.08494906      2.06448576      
O       1.51790156      0.61405863      3.13499887      
H       -0.99590853     -0.13114917     -0.51813789     
H       0.62936686      -0.98876229     -0.30121730     
H       -0.64798291     1.02491644      1.67304786      
H       2.00850642      -0.63682275     1.61122034      
