10
baker set rxn 11 product.
C        0.0456230285    -0.1054076979     0.0077437266
C        0.0456230284     0.1054076969     1.4622562734
C        1.0920698402     0.0658306739    -0.8093502943
C        1.0920698403    -0.0658306739     2.2793502943
H       -0.9081441726    -0.4073686958    -0.4249979877
H       -0.9081441724     0.4073686961     1.8949979875
H        1.0159130359    -0.1299253252    -1.8742076403
H        2.0522995728     0.4185329704    -0.4433037200
H        1.0159130360     0.1299253261     3.3442076402
H        2.0522995729    -0.4185329707     1.9133037203
