14
baker set rxn 17 reactant.
C        0.3258537309    -0.2213864549     0.0535484203
C        0.1853952363    -0.0387464310     1.5414443373
C        0.9409586692     0.7649450084     2.2894579239
O        2.0893706821    -3.2799493054     0.6835164812
C        1.9194204351    -2.2038969585     0.1562147090
C        0.5877052110    -1.6896255251    -0.3469669643
H        1.1357368591     0.4165014275    -0.3226102455
H       -0.5918454277     0.1099421211    -0.4500283456
H       -0.5962760055    -0.6302402976     2.0198738237
H        0.7938789033     0.8522631931     3.3615639136
H        1.7341126676     1.3695682395     1.8556245908
H        0.6066027309    -1.7631854229    -1.4445336479
H       -0.1995225113    -2.3582318340     0.0152410163
H        2.7760699061    -1.5092836154    -0.0106805625
