7
XYZ coordinates of replica 0.
O       0.03584830      0.00000000      0.05666718      
C       0.24438534      0.00000000      1.38916598      
N       1.42438350      0.00000000      1.86955196      
O       1.38317170      0.00000000      3.28514354      
H       -0.67159734     0.00000000      1.97599339      
H       2.32255999      0.00000000      3.51066394      
H       0.90794580      0.00000000      -0.37167646     
7
XYZ coordinates of replica 1.
O       0.08085615      0.00000000      0.06495504      
C       0.13178726      0.00000000      1.41800002      
N       1.31608450      -0.00000000     1.88675643      
O       1.47827579      -0.00000000     3.27200014      
H       -0.84066876     0.00000000      1.91429340      
H       2.44553513      0.00000000      3.30280845      
H       1.03544249      -0.00000000     -0.14400751     
7
XYZ coordinates of replica 2.
O       0.13351619      0.00000000      0.06774582      
C       0.03013688      0.00000000      1.41937388      
N       1.22474583      0.00000000      1.87435660      
O       1.55516537      -0.00000000     3.21065345      
H       -0.95241819     0.00000000      1.89452523      
H       2.51710721      0.00000000      3.09170382      
H       1.13795843      -0.00000000     0.15813528      
7
XYZ coordinates of replica 3.
O       0.02531008      -0.00000000     0.03641885      
C       -0.03629063     0.00000000      1.32177458      
N       1.19683305      0.00000000      1.75206229      
O       1.54663841      -0.00000000     3.11542150      
H       -0.94574135     0.00000000      1.91897866      
H       2.51377589      0.00000000      3.09575799      
H       1.34659660      -0.00000000     0.47428193      
7
XYZ coordinates of replica 4.
O       -0.18102982     0.00000000      0.04088548      
C       -0.06804468     -0.00000000     1.27825469      
N       1.20514067      -0.00000000     1.63634525      
O       1.54537999      0.00000000      3.02402752      
H       -0.86258578     -0.00000000     2.02687878      
H       2.50580999      -0.00000000     3.13005620      
H       1.50150011      0.00000000      0.58017570      
7
XYZ coordinates of replica 5.
O       -0.29527922     0.00000000      0.01442306      
C       -0.11510900     -0.00000000     1.22814627      
N       1.16511398      -0.00000000     1.63733762      
O       1.54659492      0.00000000      2.99873568      
H       -0.89775602     -0.00000000     2.00321587      
H       2.51450426      -0.00000000     3.04886578      
H       1.72817147      0.00000000      0.78450477      
7
XYZ coordinates of replica 6.
O       -0.46043404     0.00000000      0.01410577      
C       -0.11691296     0.00000000      1.18464190      
N       1.17997567      0.00000000      1.57764721      
O       1.46933176      -0.00000000     2.96087734      
H       -0.80282107     -0.00000000     2.05089950      
H       2.43462717      -0.00000000     3.01291563      
H       1.94293076      0.00000000      0.91442217      
