8
baker set rxn 21 product.
C       -0.0257085200     0.0000000000     0.0141901800    
C       -0.0352362800     0.0000000000     1.3526365100    
C        1.2571974200    -0.0000000000     2.0910117200    
O        2.3390058100    -0.0000000000     1.5313470300    
H       -0.9338516600     0.0000000000    -0.5786237600    
H        0.9239422900    -0.0000000000    -0.5152517400    
H       -0.9667402200    -0.0000000000     1.9172939700    
H        1.2086077400    -0.0000000000     3.2022061400    