16
baker set rxn 9 product.
C       -0.0420305584     1.3975236709    -0.1448995653
C       -0.0420321261    -1.3975186402    -0.1449051101
C        1.2463391469    -0.6683926053     0.1441445204
C        1.2463405916     0.6683931467     0.1441441956
C       -0.7774697878    -0.7774721781    -1.3591215740
C       -0.7774679031     0.7774654295    -1.3591233353
H        2.1505050622    -1.2359745119     0.3517503917
H        2.1505065842     1.2359727650     0.3517559253
H        0.1322392518     2.4642217715    -0.3206291317
H        0.1322356842    -2.4642132167    -0.3206584234
H       -0.6955267384     1.3385725707     0.7391487861
H       -0.6955170708    -1.3385564068     0.7391566884
H       -1.8032136565    -1.1610691525    -1.3915020550
H       -1.8032115093     1.1610625870    -1.3915093608
H       -0.2867426601    -1.1361443979    -2.2699401838
H       -0.2867398673     1.1361291680    -2.2699448064
