14
XYZ coordinates of replica 0.
C       0.32585373      -0.22138645     0.05354842      
C       0.18539524      -0.03874643     1.54144434      
C       0.94095867      0.76494501      2.28945792      
O       2.08937068      -3.27994931     0.68351648      
C       1.91942044      -2.20389696     0.15621471      
C       0.58770521      -1.68962553     -0.34696696     
H       1.13573686      0.41650143      -0.32261025     
H       -0.59184543     0.10994212      -0.45002835     
H       -0.59627601     -0.63024030     2.01987382      
H       0.79387890      0.85226319      3.36156391      
H       1.73411267      1.36956824      1.85562459      
H       0.60660273      -1.76318542     -1.44453365     
H       -0.19952251     -2.35823183     0.01524102      
H       2.77606991      -1.50928362     -0.01068056     
14
XYZ coordinates of replica 1.
C       0.21406634      -0.11108322     -0.01519810     
C       0.10164438      -0.00228310     1.48464505      
C       1.03450664      0.55117642      2.26553896      
O       2.10137631      -2.81249935     1.16537372      
C       1.90529322      -2.03506615     0.25599497      
C       0.57705514      -1.78788886     -0.42062004     
H       1.02136390      0.59442664      -0.31240909     
H       -0.69299547     0.33392663      -0.47586498     
H       -0.77325222     -0.47650167     1.92638274      
H       0.98614049      0.52206700      3.35159760      
H       1.90644243      1.03992211      1.83237164      
H       0.70041716      -2.03332127     -1.50166190     
H       -0.08484291     -2.59503390     -0.03178484     
H       2.70981515      -1.36898843     -0.12324275     
14
XYZ coordinates of replica 2.
C       0.11316641      0.34640349      0.07447731      
C       0.05087787      0.10294255      1.46887491      
C       1.09926858      0.42208295      2.26560423      
O       2.04561173      -2.46120828     1.40041170      
C       1.87240455      -2.01741117     0.26274011      
C       0.70130768      -2.26596518     -0.51871734     
H       0.99299129      0.89671848      -0.26639519     
H       -0.79816740     0.59474395      -0.46845583     
H       -0.83720199     -0.38278074     1.86714031      
H       1.08244960      0.31508769      3.34236447      
H       1.97475054      0.88589686      1.81725234      
H       0.78697961      -2.32000866     -1.60355905     
H       0.01609990      -2.98299737     -0.05746686     
H       2.60619296      -1.31458868     -0.18352235     
14
XYZ coordinates of replica 3.
C       0.02892358      0.70817656      0.16655207      
C       0.01230014      0.15991543      1.41280488      
C       1.18538598      0.16724040      2.18296129      
O       1.85506996      -1.99499360     1.54643034      
C       1.77773591      -1.93390009     0.26129496      
C       0.87198397      -2.61994882     -0.51184267     
H       0.94881601      1.16640858      -0.18985826     
H       -0.86672155     0.88066279      -0.41842067     
H       -0.87963024     -0.32803070     1.79932129      
H       1.14362214      0.10015487      3.26638281      
H       2.03651436      0.70392424      1.76926506      
H       0.92924111      -2.62505155     -1.59882927     
H       0.19927171      -3.32579178     -0.03179532     
H       2.46405192      -1.23989334     -0.25367040     
14
XYZ coordinates of replica 4.
C       -0.02205297     0.97234048      0.26584208      
C       -0.01768453     0.18113092      1.33669807      
C       1.27215869      -0.20533522     1.98661692      
O       1.61884201      -1.60554201     1.62488996      
C       1.65926875      -1.83860366     0.25470621      
C       1.04275588      -2.82234512     -0.41477305     
H       0.91640536      1.39430948      -0.09078774     
H       -0.92133599     1.22450562      -0.28380810     
H       -0.92545373     -0.28714059     1.71470342      
H       1.19715484      -0.10466756     3.08535131      
H       2.05034743      0.50530740      1.66147594      
H       1.13092209      -2.88505736     -1.50430226     
H       0.44636545      -3.58747773     0.07177123      
H       2.25932851      -1.12262784     -0.30685140     
14
XYZ coordinates of replica 5.
C       -0.05768878     1.24659653      0.37881023      
C       -0.05562021     0.26874312      1.28294263      
C       1.22180368      -0.25702704     1.86985979      
O       1.43690798      -1.63755039     1.54127020      
C       1.54838808      -1.88113553     0.19893579      
C       1.24077823      -3.05248564     -0.35545614     
H       0.88305289      1.69096789      0.05870890      
H       -0.96603857     1.63245422      -0.07125388     
H       -0.97735762     -0.21545166     1.60468122      
H       1.20347939      -0.21212534     2.96379581      
H       2.06380430      0.35847006      1.51822320      
H       1.38901740      -3.19455297     -1.41996629     
H       0.84732281      -3.87628727     0.22963564      
H       1.92957085      -1.05174298     -0.39833274     
14
XYZ coordinates of replica 6.
C       -0.06530064     1.51395593      0.51737486      
C       -0.07190852     0.38813904      1.22994586      
C       1.16562604      -0.28726430     1.75077479      
O       1.20483388      -1.68580362     1.44378514      
C       1.42396499      -2.00117643     0.13336908      
C       1.43884776      -3.26030400     -0.30172849     
H       0.86355163      2.01224077      0.24872944      
H       -0.98403319     1.98654752      0.18361339      
H       -1.01230693     -0.09864754     1.48444277      
H       1.19095908      -0.25026409     2.84519328      
H       2.06832216      0.21620511      1.37604094      
H       1.63214771      -3.46652213     -1.34687731     
H       1.26263700      -4.09403354     0.36858376      
H       1.59012012      -1.15439856     -0.53158208     
