14
XYZ coordinates of replica 0.
C       0.32585373      -0.22138645     0.05354842      
C       0.18539524      -0.03874643     1.54144434      
C       0.94095867      0.76494501      2.28945792      
O       2.08937068      -3.27994931     0.68351648      
C       1.91942044      -2.20389696     0.15621471      
C       0.58770521      -1.68962553     -0.34696696     
H       1.13573686      0.41650143      -0.32261025     
H       -0.59184543     0.10994212      -0.45002835     
H       -0.59627601     -0.63024030     2.01987382      
H       0.79387890      0.85226319      3.36156391      
H       1.73411267      1.36956824      1.85562459      
H       0.60660273      -1.76318542     -1.44453365     
H       -0.19952251     -2.35823183     0.01524102      
H       2.77606991      -1.50928362     -0.01068056     
14
XYZ coordinates of replica 1.
C       0.21559807      -0.19862276     -0.01727668     
C       0.08037834      -0.02235940     1.47352353      
C       1.03844013      0.46743731      2.26031768      
O       2.11590796      -2.61838852     1.26591672      
C       1.94690284      -1.95907372     0.26557541      
C       0.60261765      -1.66698228     -0.36262709     
H       0.99117837      0.47404557      -0.40555833     
H       -0.71575560     0.05793423      -0.53634890     
H       -0.82905731     -0.41892821     1.92507698      
H       0.94406344      0.47398917      3.34158288      
H       1.97451424      0.84434203      1.85221251      
H       0.67269527      -1.79036671     -1.45172179     
H       -0.13638482     -2.37326874     0.02871973      
H       2.80561769      -1.45128924     -0.23562095     
14
XYZ coordinates of replica 2.
C       0.11347937      -0.08383022     -0.05597191     
C       0.01657602      0.05784167      1.42677104      
C       1.11871208      0.15884357      2.18948692      
O       1.99496944      -1.84532305     1.57114514      
C       1.91932549      -1.72956793     0.35893694      
C       0.63690155      -1.74582389     -0.37757842     
H       0.89241505      0.57561231      -0.45990064     
H       -0.82449696     0.17492690      -0.56916030     
H       -0.93342714     -0.19537985     1.89508290      
H       1.14934964      -0.11629223     3.23910469      
H       2.08014163      0.44607473      1.77523366      
H       0.81197013      -2.03903238     -1.43028420     
H       -0.06400579     -2.46995245     0.05821130      
H       2.79317310      -1.36807966     -0.22416399     
14
XYZ coordinates of replica 3.
C       -0.04158776     0.51478513      0.11232600      
C       -0.00972283     0.12787139      1.38958937      
C       1.29784947      -0.19140692     2.04844046      
O       1.70775461      -1.54774763     1.66435478      
C       1.82670590      -1.72980731     0.31099955      
C       0.89013453      -2.33429417     -0.41912464     
H       0.87701894      0.78114041      -0.40606917     
H       -0.94855092     0.53765824      -0.48309304     
H       -0.91898077     -0.19349299     1.89423570      
H       1.24036680      -0.22105409     3.13966750      
H       2.08177875      0.52159383      1.75667526      
H       1.00360809      -2.43478208     -1.49262311     
H       -0.01487349     -2.72330151     0.03650276      
H       2.71386131      -1.28861479     -0.15337956     
14
XYZ coordinates of replica 4.
C       -0.05960906     0.89925713      0.21841388      
C       -0.00975106     0.19566732      1.34901743      
C       1.28535098      -0.23731087     1.97837586      
O       1.56642338      -1.60776444     1.62259941      
C       1.71746574      -1.79316362     0.27224219      
C       1.01757841      -2.69770219     -0.40681746     
H       0.84953005      1.27545488      -0.24697762     
H       -0.99072661     1.09442155      -0.30462650     
H       -0.91884363     -0.22096903     1.78026122      
H       1.24525467      -0.23272639     3.07149454      
H       2.10969828      0.41889652      1.65816837      
H       1.18618170      -2.83939327     -1.46795052     
H       0.25701688      -3.29562966     0.08424718      
H       2.45240122      -1.14091048     -0.20755900     
14
XYZ coordinates of replica 5.
C       -0.07383552     1.22361777      0.35383416      
C       -0.03647978     0.28191650      1.29617355      
C       1.23719367      -0.25863296     1.88420407      
O       1.42131351      -1.64259431     1.54660906      
C       1.57996009      -1.87542563     0.20851415      
C       1.20995472      -3.01688798     -0.36835300     
H       0.83771444      1.68660178      -0.01911092     
H       -1.00680898     1.56116442      -0.08760945     
H       -0.95508880     -0.19194284     1.64027404      
H       1.21878627      -0.23896286     2.97872693      
H       2.09940996      0.33549738      1.54444776      
H       1.40182131      -3.17799599     -1.42231869     
H       0.71927879      -3.80069742     0.19825330      
H       2.05346095      -1.06678106     -0.35119977         
14
XYZ coordinates of replica 6.
C       -0.06530064     1.51395593      0.51737486      
C       -0.07190852     0.38813904      1.22994586      
C       1.16562604      -0.28726430     1.75077479      
O       1.20483388      -1.68580362     1.44378514      
C       1.42396499      -2.00117643     0.13336908      
C       1.43884776      -3.26030400     -0.30172849     
H       0.86355163      2.01224077      0.24872944      
H       -0.98403319     1.98654752      0.18361339      
H       -1.01230693     -0.09864754     1.48444277      
H       1.19095908      -0.25026409     2.84519328      
H       2.06832216      0.21620511      1.37604094      
H       1.63214771      -3.46652213     -1.34687731     
H       1.26263700      -4.09403354     0.36858376      
H       1.59012012      -1.15439856     -0.53158208   
