10
XYZ coordinates of replica 0.
C       0.01731701      0.11125190      0.00636146      
C       0.02182689      0.11058562      1.46366332      
C       1.10507169      -0.08057721     -0.75225911     
C       -1.06597245     0.30233849      2.22224465      
H       -0.94662861     0.28153083      -0.47301429     
H       0.98574274      -0.05974061     1.94307659      
H       1.05495224      -0.07169976     -1.83604755     
H       2.08281977      -0.25280791     -0.30935892     
H       -1.01593383     0.29326297      3.30603516      
H       -2.04368301     0.47466185      1.77929869      
10
XYZ coordinates of replica 1.
C       0.05004293      0.26806979      0.00309893      
C       0.04464041      0.26889794      1.46694779      
C       1.07544826      -0.16168732     -0.74400862     
C       -1.06588966     0.21578033      2.21406610      
H       -0.86013751     0.61513636      -0.48687247     
H       1.01864110      0.28354571      1.95690454      
H       1.02407576      -0.18015244     -1.82816296     
H       1.98576853      -0.54662354     -0.29012550     
H       -1.02390714     0.18065967      3.29821199      
H       -2.05298323     0.16561482      1.76019783      
10
XYZ coordinates of replica 2.
C       0.08784447      0.39316004      -0.00370705     
C       0.05174454      0.39943275      1.47370020      
C       1.01459312      -0.24346094     -0.72688584     
C       -1.03674279     0.11781314      2.19687604      
H       -0.71294449     0.92665956      -0.51716395     
H       0.98668837      0.62689958      1.98718410      
H       0.98766435      -0.24611255     -1.81243576     
H       1.80737581      -0.81917435     -0.25469977     
H       -1.01231569     0.10597887      3.28242369      
H       -1.97861065     -0.15204968     1.72467907      
10
XYZ coordinates of replica 3.
C       0.13133884      0.48987669      -0.00721234     
C       0.04418754      0.50505825      1.47763410      
C       0.92736011      -0.32053266     -0.70773454     
C       -0.98125297     0.01590300      2.17790423      
H       -0.50102058     1.20144923      -0.54131973     
H       0.88188282      0.95705278      2.01190427      
H       0.95449277      -0.29114128     -1.79342059     
H       1.56861257      -1.05096148     -0.22025932     
H       -0.99680052     0.05252252      3.26359716      
H       -1.83374061     -0.45076093     1.69020688      
10
XYZ coordinates of replica 4.
C       0.18335396      0.57148778      -0.00276715     
C       0.02345171      0.59959728      1.47276504      
C       0.82243206      -0.38092578     -0.68532979     
C       -0.90321406     -0.07643012     2.15518472      
H       -0.23797076     1.41894880      -0.54812003     
H       0.70944272      1.25149137      2.01825909      
H       0.91641211      -0.33576129     -1.76709312     
H       1.28763420      -1.22655768     -0.18542174     
H       -0.97610079     -0.00200016     3.23695762      
H       -1.62981585     -0.71158887     1.65514402      
10
XYZ coordinates of replica 5.
C       0.24613248      0.64219586      0.00925626      
C       -0.01146378     0.68757236      1.46083626      
C       0.71153504      -0.41833486     -0.65889364     
C       -0.81182077     -0.14961738     2.12888081      
H       0.06038273      1.56885841      -0.53737099     
H       0.48027097      1.49460467      2.00756074      
H       0.87577031      -0.38304999     -1.73242991     
H       0.96989619      -1.34295188     -0.14957462     
H       -0.95408409     -0.06038191     3.20242250      
H       -1.37105365     -0.92987627     1.61943671      
10
XYZ coordinates of replica 6.
C       0.31919692      0.68148885      0.02680491      
C       -0.06680014     0.74946300      1.44329200      
C       0.61543174      -0.43331301     -0.65251674     
C       -0.72659662     -0.19680929     2.12244847      
H       0.38400988      1.63858944      -0.49076194     
H       0.19974936      1.67089545      1.96100940      
H       0.87390876      -0.40148989     -1.70618574     
H       0.62166207      -1.40950427     -0.17560800     
H       -0.95861487     -0.07863451     3.17612949      
H       -1.06643466     -1.11187962     1.64538816      
