7
baker set rxn 14 product.
C       0.0000000000     0.0000000000     0.0000000000
C       0.0000000000     0.0000000000     1.4300000000
O       1.1258330249     0.0000000000     2.0800000000
H      -0.4328730755    -0.9282993062    -0.3728019562
H      -0.5121324783     0.8870394727    -0.3728019562
H      -0.9403756081     0.0822722052     1.9750000000
H       1.1236085704     0.1018967679     0.7338528682
