5
baker set rxn 23 reactant.
C        0.8988844467     0.0000000000     0.0000000000
N        2.0756723275     0.0000000000     0.0000000000
H        3.0740726700     0.0000000000     0.0000000000
H       -4.3443147221    -0.3713512166     0.0000000000
H       -4.3443147221     0.3713512166     0.0000000000
