4
XYZ coordinates of replica 0.
O       -0.20184249     0.00000000      0.10802584      
C       0.38998093      0.00000000      1.13510894      
Cl      2.18491770      0.00000000      1.24753715      
H       -0.03805614     0.00000000      2.14632807      
4
XYZ coordinates of replica 1.
O       -0.38248727     0.00000000      0.02199903      
C       0.19865558      -0.00000000     1.03137316      
Cl      2.27322336      0.00000000      1.48371117      
H       0.24525011      -0.00000000     2.10024779      
4
XYZ coordinates of replica 2.
O       -0.40008677     0.00000000      -0.05217665     
C       -0.11217959     -0.00000000     1.04841957      
Cl      2.28663723      0.00000000      1.63372692      
H       0.56046819      -0.00000000     2.00754623      
4
XYZ coordinates of replica 3.
O       -0.43879666     -0.00000000     -0.12804829     
C       -0.38371578     -0.00000000     1.00434054      
Cl      2.24364348      -0.00000000     1.78446222      
H       0.91385892      0.00000000      1.97628761      
4
XYZ coordinates of replica 4.
O       -0.75347053     -0.00000000     -0.21974013     
C       -0.39206981     0.00000000      0.85455220      
Cl      2.39197040      0.00000000      2.00948203      
H       1.08857540      -0.00000000     1.99264363      
4
XYZ coordinates of replica 5.
O       -1.06102495     0.00000000      -0.19019342     
C       -0.31879649     -0.00000000     0.66618837      
Cl      2.48272411      -0.00000000     2.25569443      
H       1.23168452      -0.00000000     1.90482628      
4
XYZ coordinates of replica 6.
O       -1.29640651     0.00000000      -0.16140403     
C       -0.36821825     0.00000000      0.49181001      
Cl      2.53102577      0.00000000      2.52257081      
H       1.46859899      0.00000000      1.78402321      
