11
baker set rxn 18 reactant.
C       -0.0354985397    -0.0519185288     0.0378727363
C       -0.0733511427    -0.1085735243     1.5749935037
Si       1.6296695413     0.0302419011     2.3937802408
H        0.3919694509     0.8914685155    -0.3183290453
H        0.5700527354    -0.8640068374    -0.3787427866
H       -1.0400771954    -0.1394012473    -0.3901555296
H       -0.7090108454     0.6957940639     1.9665762243
H       -0.5383127118    -1.0458356945     1.9064048209
H        2.5091757508    -1.0947025713     1.9691591625
H        2.2950181241     1.3053352967     2.0062331446
H        1.5125526103    -0.0037159842     3.8780932301
