5
baker set rxn 25 reactant.
C        0.5011056374    -0.1339404475     0.0000000000
N        1.8162249799    -0.0867443204     0.0000000000
H        2.4128392469     0.7458222366     0.0000000000
H        2.3429640717    -0.9550737105     0.0000000000
H        0.1695001636     0.9299362418     0.0000000000
