5
XYZ coordinates of replica 0.
C       0.60523118      -0.03225764     0.00000000      
N       1.86432756      -0.19886227     0.00000000      
H       2.34353538      0.70844253      0.00000000      
H       -0.04131705     -0.91414837     0.00000000      
H       0.08822293      0.93682575      0.00000000      
5
XYZ coordinates of replica 1.
C       0.51068196      0.07543914      -0.00000000     
N       1.73671636      -0.24603652     -0.00000000     
H       2.41902406      0.48949370      -0.00000000     
H       0.11189237      -0.93706768     0.00000000      
H       0.08127662      1.11900191      -0.00000000     
5
XYZ coordinates of replica 2.
C       0.39448368      0.16363886      -0.00000000     
N       1.61107989      -0.26010451     -0.00000000     
H       2.44842634      0.29558443      -0.00000000     
H       0.33160550      -0.97344531     0.00000000      
H       0.07373852      1.27564533      0.00000000      
5
XYZ coordinates of replica 3.
C       0.26560892      0.19903633      -0.00000000     
N       1.50184266      -0.24220616     -0.00000000     
H       2.37840289      0.31524757      0.00000000      
H       0.65743261      -1.06194496     0.00000000      
H       0.05637819      1.29042818      0.00000000      
5
XYZ coordinates of replica 4.
C       0.17492873      0.26855612      -0.00000000     
N       1.39400435      -0.23334419     -0.00000000     
H       2.34323489      0.23905659      0.00000000      
H       0.86518376      -1.12583060     0.00000000      
H       0.08234475      1.35210138      0.00000000      
5
XYZ coordinates of replica 5.
C       0.10105260      0.33618117      -0.00000000     
N       1.29016452      -0.22394043     -0.00000000     
H       2.26640132      0.16147205      0.00000000      
H       1.04761205      -1.20374585     0.00000000      
H       0.15465095      1.43034057      0.00000000      
5
XYZ coordinates of replica 6.
C       0.03171384      0.36114551      0.00000000      
N       1.20071949      -0.24316581     0.00000000      
H       2.12914604      0.18943075      0.00000000      
H       1.23350140      -1.25823987     0.00000000      
H       0.26491923      1.45082943      0.00000000      
