8
XYZ coordinates of replica 0.
C       0.11985566      0.00000000      -0.23985863     
C       0.29101447      0.00000000      1.29496361      
H       1.08342542      0.00000000      -0.75785123     
H       1.34539788      0.00000000      1.58705010      
H       -0.43018053     -0.87936548     -0.58757182     
H       -0.43018054     0.87936548      -0.58757182     
H       -0.16860549     0.87959176      1.75541990      
H       -0.16860549     -0.87959176     1.75541990      
8
XYZ coordinates of replica 1.
C       0.00612169      -0.00000000     -0.22470625     
C       0.13191633      0.00000000      1.30628442      
H       1.57762340      -0.00000000     -0.42291714     
H       1.19454392      0.00000001      1.16575932      
H       -0.47366708     -0.89767047     -0.65580676     
H       -0.47366709     0.89767047      -0.65580676     
H       -0.16038189     0.90484556      1.85347656      
H       -0.16038188     -0.90484556     1.85347656      
8
XYZ coordinates of replica 2.
C       -0.45026667     -0.00000000     -0.07717496     
C       0.06498335      0.00000000      1.26834569      
H       2.15161363      -0.00000000     -0.34680187     
H       1.18331835      0.00000000      0.95528909      
H       -0.53575592     -0.92627959     -0.63492008     
H       -0.53575593     0.92627959      -0.63492008     
H       -0.11801279     0.91005450      1.84497046      
H       -0.11801278     -0.91005450     1.84497046      
8
XYZ coordinates of replica 3.
C       -0.48645227     -0.00000000     -0.02919097     
C       -0.13963691     0.00000000      1.26354565      
H       2.09767967      -0.00000000     -0.07030720     
H       1.50848158      0.00000000      0.58691880      
H       -0.54937151     -0.91934444     -0.61323821     
H       -0.54937152     0.91934444      -0.61323821     
H       -0.11961839     0.91703088      1.84764860      
H       -0.11961839     -0.91703088     1.84764859      
8
XYZ coordinates of replica 4.
C       -0.54145947     -0.00000000     -0.00473517     
C       -0.36598505     -0.00000000     1.31327371      
H       2.24044841      0.00000000      -0.18830363     
H       1.98188821      0.00000000      0.50577668      
H       -0.57518763     -0.92236743     -0.57966566     
H       -0.57518763     0.92236743      -0.57966566     
H       -0.26121914     0.92374221      1.87665775      
H       -0.26121914     -0.92374222     1.87665775      
8
XYZ coordinates of replica 5.
C       -0.62490964     -0.00000000     0.02908837      
C       -0.46745862     -0.00000000     1.35108750      
H       2.68909605      0.00000000      -0.23474451     
H       2.19652239      0.00000000      0.32047178      
H       -0.68359858     -0.92354206     -0.54138983     
H       -0.68359858     0.92354206      -0.54138983     
H       -0.39199527     0.92419423      1.91842193      
H       -0.39199527     -0.92419423     1.91842193      
8
XYZ coordinates of replica 6.
C       -0.72397540     -0.00000000     0.05834897      
C       -0.55879278     -0.00000000     1.37925241      
H       3.10888493      0.00000000      -0.13543564     
H       2.38650785      0.00000000      0.04137530      
H       -0.79591288     -0.92370619     -0.50936014     
H       -0.79591288     0.92370619      -0.50936014     
H       -0.48933874     0.92356799      1.94758962      
H       -0.48933874     -0.92356799     1.94758962      
