7
XYZ coordinates of replica 0.
C       0.12079422      0.02059939      0.13516980      
C       -0.01330998     0.01956249      1.63635655      
O       0.91729715      0.03906288      2.41048940      
H       -0.36764236     -0.86857532     -0.28213582     
H       -0.40297028     0.88960983      -0.28204137     
H       -1.06247892     -0.00013238     2.01135077      
H       1.17237060      0.04278225      -0.15594038     
7
XYZ coordinates of replica 1.
C       0.07601666      0.03485442      0.11478873      
C       -0.05404786     0.02314971      1.60525946      
O       0.95860897      -0.08159829     2.26679279      
H       -0.24630463     -0.90018797     -0.35757933     
H       -0.50361881     0.84262584      -0.36112708     
H       -1.03827310     0.14190494      2.09561013      
H       1.17157940      0.08244371      0.10953909      
7
XYZ coordinates of replica 2.
C       0.02245302      0.07213084      0.08130115      
C       -0.08045743     0.04233177      1.54153327      
O       0.99801414      -0.13475705     2.10157188      
H       -0.17193733     -0.89154307     -0.39580898     
H       -0.64076255     0.82168148      -0.40816531     
H       -0.98648869     0.20442016      2.13016780      
H       1.22303464      0.02891344      0.42273278      
7
XYZ coordinates of replica 3.
C       -0.07740421     0.10931348      0.04668850      
C       -0.11246447     0.06733627      1.46447557      
O       1.04753635      -0.18082809     1.94772897      
H       -0.10254736     -0.87955446     -0.42602385     
H       -0.76351120     0.79992026      -0.44481011     
H       -0.93933075     0.25646060      2.15586226      
H       1.31155800      -0.02947699     0.72952464      
7
XYZ coordinates of replica 4.
C       -0.26283348     0.09105657      0.05089706      
C       -0.13546918     0.10520391      1.39478956      
O       1.08177976      -0.23809818     1.87222538      
H       0.04720371      -0.78758522     -0.51018617     
H       -0.95960607     0.73772605      -0.43671582     
H       -0.88856458     0.37322918      2.13252378      
H       1.48140822      -0.13858646     0.96970943      
7
XYZ coordinates of replica 5.
C       -0.34535029     0.07659911      0.04513406      
C       -0.11762910     0.14242930      1.35679693      
O       1.06980406      -0.21954220     1.90404734      
H       0.18978434      -0.58125287     -0.62322954     
H       -1.18260194     0.57200252      -0.39346026     
H       -0.84179076     0.48235157      2.08768634      
H       1.59176433      -0.32968379     1.09626294      
7
XYZ coordinates of replica 6.
C       -0.40393519     0.06235362      0.01659244      
C       -0.09821176     0.17556490      1.30987466      
O       1.07037686      -0.17616394     1.91417860      
H       0.29257989      -0.34396240     -0.71226115     
H       -1.37483229     0.38079843      -0.34130861     
H       -0.79265610     0.58129525      2.04010173      
H       1.67073902      -0.53697671     1.24607128      
