7
XYZ coordinates of replica 0.
C       0.12079422      0.02059939      0.13516980      
C       -0.01330998     0.01956249      1.63635655      
O       0.91729715      0.03906288      2.41048940      
H       -0.36764236     -0.86857532     -0.28213582     
H       -0.40297028     0.88960983      -0.28204137     
H       -1.06247892     -0.00013238     2.01135077      
H       1.17237060      0.04278225      -0.15594038     
7
XYZ coordinates of replica 1.
C       0.07565949      0.01909416      0.10530223      
C       -0.03712827     0.01796340      1.58804703      
O       0.99136032      -0.01125322     2.22825538      
H       -0.32061925     -0.88560133     -0.37683687     
H       -0.49016916     0.85665759      -0.34082260     
H       -1.02709803     0.09463994      2.05967884      
H       1.17184157      0.05141713      0.20963556      
7
XYZ coordinates of replica 2.
C       0.05178269      0.04560714      0.06582647      
C       -0.06372671     0.03225404      1.52597939      
O       1.02934353      -0.07540156     2.08751143      
H       -0.22814518     -0.87706887     -0.46762119     
H       -0.66840794     0.79827101      -0.36122559     
H       -0.98124280     0.22009330      2.08516662      
H       1.22456121      -0.00091448     0.53755944      
7
XYZ coordinates of replica 3.
C       -0.08733698     0.07692302      0.03252006      
C       -0.09833113     0.06753525      1.42907671      
O       1.09536506      -0.11257547     1.93208701      
H       -0.18344148     -0.87295584     -0.49877499     
H       -0.78569726     0.79069051      -0.37516695     
H       -0.94748451     0.25104156      2.08411126      
H       1.37085170      -0.05774192     0.86932428      
7
XYZ coordinates of replica 4.
C       -0.24962876     0.07068749      0.03032819      
C       -0.10354020     0.11662825      1.37237539      
O       1.09504935      -0.16618329     1.92559613      
H       -0.02210438     -0.79002691     -0.59533625     
H       -0.99128845     0.72018595      -0.38279071     
H       -0.89840846     0.36881502      2.06654455      
H       1.53396759      -0.17716351     1.05649018      
7
XYZ coordinates of replica 5.
C       -0.34567274     0.05938967      0.04014067      
C       -0.10106225     0.15070651      1.35142913      
O       1.08446104      -0.18237054     1.92475893      
H       0.17637951      -0.58303929     -0.66700648     
H       -1.19935820     0.57094572      -0.36292295     
H       -0.85560531     0.47526044      2.06114411      
H       1.60499246      -0.34794885     1.12573698      
7
XYZ coordinates of replica 6.
C       -0.40393519     0.06235362      0.01659244      
C       -0.09821176     0.17556490      1.30987466      
O       1.07037686      -0.17616394     1.91417860      
H       0.29257989      -0.34396240     -0.71226115     
H       -1.37483229     0.38079843      -0.34130861     
H       -0.79265610     0.58129525      2.04010173      
H       1.67073902      -0.53697671     1.24607128      
