8
baker set rxn 10 reactant.
N        0.03790474       0.00000000    -0.06282717     
N        0.03790474       0.00000000     1.26282717      
C        1.23408604       0.00000000    -0.66611669     
C        1.23408604      -0.00000000     1.86611669      
N        2.43026748      -0.00000000    -0.06282731     
N        2.43026748      -0.00000000     1.26282731      
H        1.23408655      -0.00000000    -1.75236511     
H        1.23408655      -0.00000000     2.95236511     
